12
xyz in angstr√∂m
C   0.0   -0.7708360384061272   -0.8817172800253592
C   0.0   -1.169664403296284   0.582446823639342
N   0.0   0.0   1.3022223908378676
C   0.0   1.169664403296284   0.582446823639342
C   0.0   0.7708360384061272   -0.8817172800253592
S   0.0   2.6708858335273886   1.23040155257814
S   0.0   -2.6708858335273886   1.23040155257814
H   0.0   0.0   2.314931374712792
H   0.8756668558293407   -1.2002393248101126   -1.369853989483725
H   -0.8756668558293407   -1.2002393248101126   -1.369853989483725
H   -0.8756668558293407   1.2002393248101126   -1.369853989483725
H   0.8756668558293407   1.2002393248101126   -1.369853989483725
