9
xyz in angstr√∂m
C   0.7120932351459907   0.0   -1.3130780133264683
C   -0.7120932351459907   0.0   -1.3130780133264683
C   -1.2390199049747068   0.0   -0.054016310847671986
C   1.2390199049747068   0.0   -0.054016310847671986
S   0.0   0.0   1.14830907751229
H   -2.277169144518207   0.0   0.2373859418591512
H   -1.3149012037774617   0.0   -2.210972595105552
H   1.3149012037774617   0.0   -2.210972595105552
H   2.277169144518207   0.0   0.2373859418591512
