11
xyz in angstr√∂m
S   0.0   0.0   -2.864330843986368
C   0.0   0.0   -1.2044614847358193
C   1.2077935902981607   0.0   -0.40798367682763886
C   -1.2077935902981607   0.0   -0.40798367682763886
C   1.1603891518315148   0.0   0.9355861476728123
C   -1.1603891518315148   0.0   0.9355861476728123
O   0.0   0.0   1.6406061182157206
H   2.168457783407067   0.0   -0.9040814656029567
H   -2.168457783407067   0.0   -0.9040814656029567
H   2.0191764951341478   0.0   1.590572100011035
H   -2.0191764951341478   0.0   1.590572100011035
