     148
10.6027 12.6481 20.3238
 Ce         5.5803315372        6.3704703056        2.5410980201
 Ce         4.0175961482        3.9037706126        0.0896398083
 Ce         7.6702355692        5.0671364572       -0.3320338079
  O         3.3088813873        5.7476421646        1.6419515963
  O         5.8661207866        4.8614838342        0.9922800823
  O         9.7818602893        5.4500352596       -0.7325019388
  O         7.5127748007        5.2092688104        3.3787968645
  O         8.5015261436        4.0401763454        1.7158008781
  C         8.2379632519        4.2505450316        2.9433868605
  C         8.8420832876        3.2950242885        3.9667949610
  O         9.6244428113        1.6435612811        6.1706959206
  O         8.5712564475        2.9853765779        7.6735951251
  C         8.9015856664        2.6516112679        6.4840539489
  C         8.3603693193        3.5589830409        5.3880804208
  O         4.6399598690        1.8541562720        0.2068332804
  O         7.6700046422        6.9676375684        1.0151038606
  O         4.9697965761        7.8457055657        1.0529027731
  O         3.9280084333        7.5576928568        3.8408101635
  O         2.5937038194        8.6540816187        2.3751669329
  C         3.0407011687        8.4288700256        3.5450529920
  C         2.4607780788        9.2840009126        4.6566950336
  O         1.8321676462       10.9542527141        6.7025490886
  O         2.3333419319        9.4856825577        8.3463353474
  C         2.2892282345        9.8320231410        7.1297730241
  C         2.8348037247        8.8771972408        6.0781812379
 Ce         0.3211920586       -0.0835852660        7.4739279782
 Ce         6.4931579983        8.7871469985       -0.2662106825
 Ce         1.9420987093       10.7240297077       10.4430341959
 Ce         8.5705608314        1.9390809730        9.9237578229
 Ce         2.8169087433        7.6047772504        0.2119385320
  O         3.6390704096        5.8524122201       19.3756489958
  O         6.6160032494        6.7347342361       18.9629961930
  O         5.7360036869        4.0989733574       18.8033828269
  O         8.2636828395        4.4031894737       17.6739584105
  O         6.7879376249        8.2641149398        3.3426959515
  O         4.6844055797        4.4735829924        3.8401863549
  O         3.6457927233        3.0981361924        2.3711033848
  O         2.7046088336        3.2780679213       18.5166686435
 Ce        -0.4175413681        0.1253159479       12.7061211303
 Ce         8.6130663754       10.7204104429        9.9829816786
  O         1.5063382927       12.6171277035       11.5370352378
  O        10.3379078679       10.4680716501       11.5743116203
  O         4.0292279297       10.6024290832       10.6705064121
  O         8.4650323769       11.3084740466       13.5516161658
  O         7.1773961988       10.3563078367       11.9516837582
  C         7.5116138705       10.5555788782       13.1689236328
  C         6.7422399101        9.8165398697       14.2540965987
  O         5.9702954258        8.1428776807       16.4142145299
  O         7.2827893802        9.2691884788       17.8747391111
  C         6.8604174671        9.0071305688       16.6971746619
  C         7.5024197279        9.8002533526       15.5778390278
  O         8.7239432052        8.6135330033        9.7747172533
  O         8.6647100213       -0.0169278815       11.0090175016
  O        -0.2265960846        1.9371035579       11.3492571180
  O         1.0464101056        1.5183680017       13.9971961617
  O         2.7122687514        2.2798551546       12.6691979991
  C         2.1792339560        2.0629734475       13.8082063214
  C         2.9725091599        2.5063430501       15.0099604544
  O         3.6902005115        4.4383086593       16.8448233273
  C         2.8922744075        3.5467174529       17.2860668751
  C         2.1232750353        2.7508173179       16.2545998405
 Ce         4.9460341109        6.3059899306       17.6309373041
 Ce         1.8576725159        1.9122763758       10.5095930447
  O         2.3216423454       12.5769842363        9.0481855018
  O         8.6628458789        0.1030674467        8.3962135750
  O        10.7052027029       11.1830383582        9.0882901798
  O         7.9496711454       10.1900652001        7.6866902472
  O         8.5592992633        1.6949205163       13.5417460959
  O         0.8535308193       11.1938686144       14.1120533111
  O         2.2025440392        9.9506001377       12.7776049604
  O         6.5023795647        1.8140493182        9.4699944338
  O         1.9771613808        3.9926367949       10.1024650671
  O         0.2159274695        1.8878713671        8.7721341254
  O         3.3735945899        2.3432119619        8.3466570569
  O         7.8398235148        3.0462575339       11.8780837128
  O         6.6428148554        5.2166931687       16.3184795882
  C         7.7047825634        4.5444722797       16.5381603707
  C         8.3597332000        3.8338705043       15.3717246956
  C         8.0154959395        2.7627327403       13.1083058599
  C         7.4949371515        3.7627368605       14.1195493584
  O         4.4745232281        8.4322132567       18.8504791786
  O         2.9780648508        7.2657555434       16.7134834371
  O         1.7700825225        8.3179135668       18.3121512704
  C         2.0806379546        8.0984459612       17.1047400391
  C         1.3729308883        8.8768037558       15.9961305115
  C         1.7654392445       10.3229344899       13.9165328785
  C         2.3892824381        9.6674362975       15.1466506426
  O         0.8407495414        7.0797152493        0.4588497616
  O         5.7442963398       10.7604127057       -0.2845503111
  O         7.5555557117        9.6609626599        1.7359605228
  O         2.0551943903        1.4652541364        6.7170685080
  C         3.0331932968        2.1853252939        7.1293891660
  C         3.8373330084        2.9346632116        6.0751589631
  C         3.9791557067        3.4540387906        3.5500236217
  C         3.4437591213        2.5652173637        4.6551891092
  O         9.4862457874       11.0648658136        6.2689602303
  C         8.4104982524       10.4234560448        6.5254045407
  C         7.5950941359        9.8765517359        5.3794271940
  C         7.4478646898        9.2839605813        2.9428911367
  C         8.1818673202       10.0899378007        3.9952057194
  H         9.9376495865        3.3751869822        3.8911927145
  H         8.6106134810        2.2701501796        3.6424462119
  H         7.2614979659        3.4972722759        5.4352343773
  H         8.5817571531        4.5927687915        5.6888716101
  H         1.3694606930        9.3090064513        4.5254508897
  H         2.7856416785       10.3166446983        4.4578938029
  H         3.9286259995        8.8404120015        6.2015950820
  H         2.4836072198        7.8651925726        6.3231147334
  H         6.5193914257        8.8021856429       13.8982144586
  H         5.7645697055       10.3136418867       14.3674719720
  H         7.6869572651       10.8176633527       15.9431868478
  H         8.5065185842        9.3686966724       15.4323429709
  H         3.5254658423        3.4126131709       14.7362911644
  H         3.7304524383        1.7282263928       15.2020708124
  H         1.7508824272        1.8229060246       16.7020926183
  H         1.2361551909        3.3479563035       15.9865431683
  H         9.3108266059        4.3500965375       15.1612478925
  H         8.6425558527        2.8263944995       15.7056700013
  H         6.4754455399        3.4391377885       14.3863212038
  H         7.3840654681        4.7387571945       13.6338186812
  H         0.8647261435        8.1374299079       15.3563250876
  H         0.6188181042        9.5404317336       16.4334901373
  H         2.8225506423       10.4734763118       15.7609430962
  H         3.1976283378        9.0033349773       14.8212931877
  H         3.6885850772        4.0114631806        6.2521926331
  H         4.9064115690        2.7621407550        6.2691242196
  H         3.7351916823        1.5313408977        4.4175384434
  H         2.3478344791        2.5645977358        4.5572681782
  H         7.4440311420        8.8047086989        5.5679160783
  H         6.5874558712       10.3152175242        5.4559583504
  H         8.1869250810       11.1457470354        3.6961427613
  H         9.2367261088        9.7714781815        3.9709762372
  H         8.5152919689        8.2051987834        8.9151079208
  H         2.6178459020        4.2992530295        9.4341358938
  H         4.5133833618        1.4527449446        1.0863197582
  H         5.5986862411       11.7183798857       -0.1971294305
  H         5.7453459106        2.1800207558        8.9741905534
  H         0.1893635959        6.4758701928       -0.0323722976
  H        10.0878836962        5.2317925659       -1.6316990284
  H         4.7827553606       10.4668951702       11.2768671261
  H         2.6799012134        5.5720654601        2.3621952598
  H         8.4278847245        7.1740305903        1.5898821284
  H         0.2918750835        2.6348865940        8.1525490218
  H         4.2230987394        9.1861643630       18.2900114120
  H         5.8505052323        3.4176598076       18.1197824572
  H         7.9763927881        0.1954628049        7.7139894863
  H        10.2899951756        9.8330416541       12.3093283089
  H         3.1627016840       12.6729916110        8.5695855098
