     172
10.6027 12.6481 20.3238
 Ce         5.4009944002        6.4112650747        2.5438416936
 Ce         3.8727661406        4.0411146441        0.0800774393
 Ce         7.6465164885        4.9151704847       -0.1337850627
  O         3.0960170598        5.8798645353        1.4885931462
  O         5.6825393013        4.8528386608        1.0751749143
  O         9.7749800772        5.3806412831        0.0560722767
  O         1.2209466645        3.3363968349        0.2283193979
  O         7.2239348609        5.1522016507        3.6118552663
  O         8.2762287079        3.9220047589        2.0243519834
  C         8.0184887685        4.2342480692        3.2324135965
  C         8.7550567192        3.4182212389        4.2778320941
  O         9.7114274428        1.8814701832        6.3892417649
  O         9.0575036590        3.3956497264        7.9528318315
  C         9.1297530168        2.9573985116        6.7554473742
  C         8.4390714025        3.8075487195        5.7070657945
  O         7.4027885571        2.3426730548        0.0068395829
  O         4.8042111924        1.9835697283        0.1200295829
  O         7.5097494834        6.8542523732        1.2861161662
  O         4.9637948991        7.8532852722        0.9866525990
  O         3.6504648456        7.5554272641        3.7295933355
  O         2.4942443360        8.7832529721        2.2186884048
  C         2.8207579845        8.4686907361        3.4048345392
  C         2.1623555822        9.2619165849        4.5104062163
  O         1.4912577976       10.8216036373        6.6127392781
  O         1.9390835350        9.2596594234        8.1868245955
  C         1.9130870173        9.6751900560        6.9871382956
  C         2.4500557656        8.7550726875        5.9128582367
 Ce         0.2376875195       -0.0427467268        7.5293099875
 Ce         6.6766479766        8.6601654566       -0.2428406061
 Ce         1.7059023615       10.4915674608       10.3027864971
 Ce         9.0117472418        2.2018580914       10.2015911474
 Ce         2.8393293761        7.7799019130       -0.0072062389
  O         3.6289981396        5.9165879096       19.2638938502
  O         6.7639551902        6.6685669963       19.0798562389
  O         5.6952221501        4.1509097318       18.8451183876
  O         8.4363879111        4.3418227752       18.0057140036
  O         6.5026589210        8.3108407074        3.5468106105
  O         4.3092713668        4.5069719610        3.7304533413
  O         3.3266977428        3.1103663955        2.2380257171
  O         2.7488944697        3.2825323162       18.4143040272
 Ce        -0.1856995374        0.0939888775       12.7560544124
 Ce         8.3514769941       10.9949405541       10.0809583935
  O         1.6604218761       12.4154539330       11.4399535257
  O        10.2150478884       10.5324026066       11.5767205959
  O         5.9526204353       11.6407180720        9.7587077228
  O         3.8740933284       10.1347724788       10.5065652651
  O         8.6733766533       11.5426363230       13.8235632488
  O         7.2264197597       10.6559851939       12.3198000244
  C         7.6277602834       10.8864430847       13.4995521908
  C         6.8568390871       10.2880992936       14.6624460048
  O         6.1842173403        7.9591554159       16.3793469794
  O         7.3895323637        9.1910019629       17.8498993973
  C         7.0863720169        8.8125452664       16.6763646102
  C         7.8201614743        9.4464975047       15.5179686340
  O         8.0064584415        8.9028123394       10.3897491749
  O         1.3255356205        7.9065460817       10.5108094965
  O         8.7890665144        0.2376538043       11.2294163440
  O         0.1757020623        1.9756746321       11.4740162451
  O         1.4737128216        1.2749948831       13.9898773056
  O         3.2561925201        1.8162146753       12.7118869133
  C         2.6518692582        1.7146682215       13.8289587496
  C         3.3827263283        2.1877812671       15.0569685507
  O         3.8739073053        4.3403735418       16.7633819406
  C         3.0630134448        3.4645023845       17.1868663179
  C         2.4135270316        2.5613047388       16.1734619575
 Ce         5.1061946804        6.2409098974       17.6422959944
 Ce         2.2786848743        1.6550958928       10.5033162664
  O         2.3438850111       12.3041781719        8.9223518524
  O         8.6571004636        0.3933050510        8.5878899974
  O        10.5132010653       11.1845405566        9.0891000065
  O         7.9525883260       10.3544096263        7.8318692718
  O         9.0542988363        1.7471416270       13.8282489064
  O         1.0466962132       11.0705311271       14.0092958229
  O         2.1570275058        9.6628065581       12.6219384603
  O         4.8962941982        1.3514293410       10.6527114942
  O         6.8743085470        2.5730510377        9.5897064525
  O         2.5988519688        3.7453463721       10.2193259331
  O         9.2250668169        4.8067274258       10.3815511779
  O         0.4978567017        1.8531090985        8.8855600911
  O         3.4039555854        2.1559775318        8.1659977852
  O         8.0942324735        3.0451277834       12.2431798260
  O         6.9425665159        5.2069879897       16.5403728556
  C         7.9675476950        4.5102405037       16.8375883487
  C         8.6664090208        3.8106155911       15.6978718630
  C         8.3431845679        2.7269401009       13.4538033780
  C         7.7184330169        3.5813223785       14.5263955254
  O         4.6560566338        8.3776888881       18.7336185830
  O         3.2109842922        7.1320331023       16.5398603935
  O         1.9309776266        8.2007074688       18.0720696394
  C         2.2661191294        7.9241582845       16.8850021364
  C         1.5404871914        8.6182647066       15.7461570721
  C         1.8729717830       10.1349307784       13.7738076645
  C         2.5432607431        9.4988847667       14.9761226783
  O         0.7232672386        7.5012712944        0.2269746210
  O         9.2101750319        9.1340303307        0.0066183063
  O         3.1471227589       10.3120071976        0.0508635677
  O         5.7113006420       10.6681067545       -0.3462405624
  O         7.2953360905        9.6643015158        1.9132722184
  O         2.0438894967        1.2282492469        6.6009505866
  C         3.0074155628        1.9936394052        6.9775493919
  C         3.7184394238        2.7788405828        5.8876553116
  C         3.6359449494        3.4770471753        3.4259150178
  C         3.0900960517        2.5867360193        4.5204258543
  O         9.2279260804       11.3668502001        6.2630277650
  C         8.2812702607       10.5912209690        6.6327056051
  C         7.4684956469        9.8764828838        5.5789185833
  C         7.1633391042        9.3169121741        3.1288056989
  C         7.8875903315       10.1690981575        4.1519998862
  H         9.8320766829        3.5111251745        4.0700538959
  H         8.5257275833        2.3570349970        4.1014740529
  H         7.3545574153        3.7380917280        5.8919336973
  H         8.6864172824        4.8600116012        5.9025148461
  H         1.0819224604        9.2981781120        4.3089111878
  H         2.5008117093       10.3039616583        4.4074050289
  H         3.5341998698        8.6528863957        6.0756753542
  H         2.0393165377        7.7490995791        6.0787723304
  H         6.0242325289        9.6795710036       14.2920063183
  H         6.4516990462       11.1119318458       15.2710341771
  H         8.6381850579       10.0720678693       15.8886182407
  H         8.2405220369        8.6350235753       14.9030204304
  H         4.0078081757        3.0457879221       14.7813786257
  H         4.0655413520        1.3841706204       15.3796298588
  H         1.9900308318        1.6811600426       16.6685529071
  H         1.5643730122        3.1198353690       15.7478232927
  H         9.5198198042        4.4382611589       15.3909818693
  H         9.0902126857        2.8660158028       16.0591016414
  H         6.8183968532        3.0501449589       14.8783035878
  H         7.3690096864        4.5253967682       14.0960704916
  H         1.1398728771        7.8444870737       15.0730311945
  H         0.7132838922        9.2187235328       16.1405439251
  H         2.9012814043       10.3028147664       15.6368428854
  H         3.3947601047        8.8900891751       14.6517251620
  H         3.7188312401        3.8400849923        6.1752943477
  H         4.7780310116        2.4782956628        5.8893548649
  H         3.1678082211        1.5436518260        4.1867986705
  H         2.0062393491        2.7792181430        4.5773122838
  H         7.5313182723        8.7998099421        5.7918792567
  H         6.4112222911       10.1311673802        5.7482288858
  H         7.7442953186       11.2258066361        3.8882786369
  H         8.9670653911        9.9867380622        4.0241451704
  H         1.6569301498        7.4950162962        9.6917904400
  H         7.4597221574        8.6806917600       11.1656225092
  H         3.1944059588        3.9264997878        9.4667330753
  H         8.9416402984        5.2712994036        9.5739674199
  H         7.7331659567        2.2474238424        0.9207294108
  H         4.5201783082        1.4374972503        0.8738382798
  H         4.1278827637       10.5583812286       -0.0923700877
  H         6.0907879897       11.5631366823       -0.3191544530
  H         4.9858297151        1.5284911797       11.6106054187
  H         6.7046508092        3.0615154251        8.7665835792
  H         0.1538523740        6.6692266409        0.1098030571
  H         1.1009407659        2.6084350468        0.8630894734
  H        10.0394398632        8.5526104731       -0.0167301284
  H        10.4266769115        4.6575560760        0.1965606099
  H         4.1364216610        9.8582273843       11.4042670821
  H         5.6169789537       12.4923610018       10.1503958294
  H         5.6257464231        1.9223726122       10.1913925032
  H         1.8025890025        7.4823832813       11.2454820981
  H         8.6136735158        5.0829944701       11.0877136235
  H         5.2109495242       10.9905638496        9.9791599721
  H         6.4042677604        2.1260369507        0.0665691111
  H         9.2503362444        9.5892470227        0.8669284711
  H         2.9786349899       10.4566172049        1.0009084450
  H         1.2424013352        2.9407670305       -0.6713860216
  H         2.4673418943        5.7543261265        2.2187403746
  H         8.3185384253        7.0216409575        1.7992321349
  H         0.5387914917        2.6352806339        8.3065728784
  H         4.5117888501        9.1406898033       18.1474228743
  H         5.8472783417        3.3815801273       18.2699699536
  H         7.9090240039        0.5499321356        7.9863801743
  H        10.0933459648        9.8138064683       12.2201784996
  H         3.1279433472       12.3153355957        8.3472359125
